#======================================================================

# CRYSTAL DATA

#----------------------------------------------------------------------

data_VESTA_phase_1


_pd_phase_name                         'ZnBDC                                 '
_cell_length_a                         6.80473
_cell_length_b                         12.58618
_cell_length_c                         15.66921
_cell_angle_alpha                      90
_cell_angle_beta                       90
_cell_angle_gamma                      102.82500
_symmetry_space_group_name_H-M         'P 1'
_symmetry_Int_Tables_number            1

loop_
_symmetry_equiv_pos_as_xyz
   'x, y, z'

loop_
   _atom_site_label
   _atom_site_occupancy
   _atom_site_fract_x
   _atom_site_fract_y
   _atom_site_fract_z
   _atom_site_adp_type
   _atom_site_B_iso_or_equiv
   _atom_site_type_symbol
   Zn1        1.0     0.681154      0.066538      0.497164     Biso  1.000000 Zn
   Zn2        1.0     0.318846      0.933462      0.502836     Biso  1.000000 Zn
   Zn3        1.0     0.181154      0.566538      0.002836     Biso  1.000000 Zn
   Zn4        1.0     0.818846      0.433462      0.997164     Biso  1.000000 Zn
   O1         1.0     0.559036      0.134517      0.396703     Biso  1.000000 O
   O2         1.0     0.440964      0.865483      0.603297     Biso  1.000000 O
   O3         1.0     0.059036      0.634517      0.103297     Biso  1.000000 O
   O4         1.0     0.940964      0.365483      0.896703     Biso  1.000000 O
   O5         1.0     0.245834      0.021542      0.402268     Biso  1.000000 O
   O6         1.0     0.754166      0.978458      0.597732     Biso  1.000000 O
   O7         1.0     0.745834      0.521542      0.097732     Biso  1.000000 O
   O8         1.0     0.254166      0.478458      0.902268     Biso  1.000000 O
   O9         1.0     0.233707      0.447109      0.083548     Biso  1.000000 O
   O10        1.0     0.766293      0.552891      0.916452     Biso  1.000000 O
   O11        1.0     0.266293      0.052891      0.583548     Biso  1.000000 O
   O12        1.0     0.733707      0.947109      0.416452     Biso  1.000000 O
   O13        1.0     0.920908      0.333526      0.081837     Biso  1.000000 O
   O14        1.0     0.079092      0.666474      0.918163     Biso  1.000000 O
   O15        1.0     0.579092      0.166474      0.581837     Biso  1.000000 O
   O16        1.0     0.420908      0.833526      0.418163     Biso  1.000000 O
   C1         1.0     0.375272      0.102919      0.371409     Biso  1.000000 C
   C2         1.0     0.624728      0.897081      0.628591     Biso  1.000000 C
   C3         1.0     0.124728      0.397081      0.871409     Biso  1.000000 C
   C4         1.0     0.875272      0.602919      0.128591     Biso  1.000000 C
   C5         1.0     0.305543      0.166456      0.301020     Biso  1.000000 C
   C6         1.0     0.694457      0.833544      0.698981     Biso  1.000000 C
   C7         1.0     0.194457      0.333544      0.801019     Biso  1.000000 C
   C8         1.0     0.805543      0.666456      0.198981     Biso  1.000000 C
   C9         1.0     0.443582      0.251506      0.260823     Biso  1.000000 C
   C10        1.0     0.556418      0.748494      0.739177     Biso  1.000000 C
   C11        1.0     0.056418      0.248494      0.760823     Biso  1.000000 C
   C12        1.0     0.943582      0.751506      0.239177     Biso  1.000000 C
   C13        1.0     0.378514      0.313599      0.197685     Biso  1.000000 C
   C14        1.0     0.621486      0.686401      0.802315     Biso  1.000000 C
   C15        1.0     0.121486      0.186401      0.697685     Biso  1.000000 C
   C16        1.0     0.878514      0.813599      0.302315     Biso  1.000000 C
   C17        1.0     0.174098      0.291259      0.173634     Biso  1.000000 C
   C18        1.0     0.825902      0.708741      0.826366     Biso  1.000000 C
   C19        1.0     0.325902      0.208741      0.673634     Biso  1.000000 C
   C20        1.0     0.674098      0.791259      0.326366     Biso  1.000000 C
   C21        1.0     0.036532      0.204868      0.212608     Biso  1.000000 C
   C22        1.0     0.963468      0.795132      0.787392     Biso  1.000000 C
   C23        1.0     0.463468      0.295132      0.712608     Biso  1.000000 C
   C24        1.0     0.536532      0.704868      0.287392     Biso  1.000000 C
   C25        1.0     0.101589      0.142951      0.276076     Biso  1.000000 C
   C26        1.0     0.898411      0.857049      0.723924     Biso  1.000000 C
   C27        1.0     0.601589      0.642951      0.223924     Biso  1.000000 C
   C28        1.0     0.398411      0.357049      0.776076     Biso  1.000000 C
   C29        1.0     0.104223      0.361790      0.108250     Biso  1.000000 C
   C30        1.0     0.895777      0.638210      0.891750     Biso  1.000000 C
   C31        1.0     0.395777      0.138210      0.608250     Biso  1.000000 C
   C32        1.0     0.604223      0.861790      0.391750     Biso  1.000000 C
   H1         1.0     0.600219      0.268919      0.279954     Biso  1.000000 H
   H2         1.0     0.399781      0.731081      0.720046     Biso  1.000000 H
   H3         1.0     0.100219      0.768919      0.220046     Biso  1.000000 H
   H4         1.0     0.899781      0.231081      0.779954     Biso  1.000000 H
   H5         1.0     0.484357      0.379734      0.167450     Biso  1.000000 H
   H6         1.0     0.515643      0.620266      0.832550     Biso  1.000000 H
   H7         1.0     0.015643      0.120266      0.667450     Biso  1.000000 H
   H8         1.0     0.984357      0.879734      0.332550     Biso  1.000000 H
   H9         1.0     0.879835      0.187557      0.193480     Biso  1.000000 H
   H10        1.0     0.120165      0.812443      0.806520     Biso  1.000000 H
   H11        1.0     0.379835      0.687557      0.306520     Biso  1.000000 H
   H12        1.0     0.620165      0.312443      0.693480     Biso  1.000000 H
   H13        1.0     0.995489      0.077396      0.306962     Biso  1.000000 H
   H14        1.0     0.004511      0.922604      0.693038     Biso  1.000000 H
   H15        1.0     0.495489      0.577396      0.193038     Biso  1.000000 H
   H16        1.0     0.504511      0.422604      0.806962     Biso  1.000000 H
